data_Graphene
_audit_creation_date              2023-06-30
_audit_creation_method            'Materials Studio'
_symmetry_space_group_name_H-M    'P1'
_symmetry_Int_Tables_number       1
_symmetry_cell_setting            triclinic
loop_
_symmetry_equiv_pos_as_xyz
  x,y,z
_cell_length_a                    2.4595
_cell_length_b                    4.2600
_cell_length_c                    30.0000
_cell_angle_alpha                 90.0000
_cell_angle_beta                  90.0000
_cell_angle_gamma                 90.0000
loop_
_atom_site_label
_atom_site_type_symbol
_atom_site_fract_x
_atom_site_fract_y
_atom_site_fract_z
_atom_site_U_iso_or_equiv
_atom_site_adp_type
_atom_site_occupancy
C1     C     0.00000   0.33333  -0.00000   0.00000  Uiso   1.00
C2     C     0.50000   0.83333   0.00000   0.00000  Uiso   1.00
C3     C    -0.00000   0.66667   0.00000   0.00000  Uiso   1.00
C4     C     0.50000   0.16667   0.00000   0.00000  Uiso   1.00
loop_
_geom_bond_atom_site_label_1
_geom_bond_atom_site_label_2
_geom_bond_distance
_geom_bond_site_symmetry_2
_ccdc_geom_bond_type
C1     C3      1.420   .     A
C1     C4      1.420   1_455 A
C2     C4      1.420   1_565 A
C2     C3      1.420   .     A
C2     C3      1.420   1_655 A
C3     C2      1.420   1_455 A
C4     C2      1.420   1_545 A
C4     C1      1.420   1_655 A
